# Design & Analysis of Bodywork for an Autonomous Racing Car
## MSc Dissertation — Hertfordshire Autonomous Racing (HAR) FS-AI 2026
### University of Hertfordshire | 2025–2026

## Overview
Sole engineer responsible for the complete structural 
bodywork programme for the HAR Formula Student Autonomous 
(FS-AI) 2026 race car entry. This project covers the full 
engineering cycle from material selection and concept design 
through to FEA simulation, VARI manufacturing, and physical 
test validation.

## Full Report
The complete dissertation report is available here:
[Download Full Report](CFRP-Bodywork-Design-Analysis-Dissertation.pdf)

## Scope of Work
- Material selection: 2×2 twill woven CFRP face sheets 
  over PVC foam core sandwich panel construction
- FS-AI regulation compliance review and PDS development
- Concept design and weighted decision matrix evaluation
  (3 concepts, Flat-Top Minimal selected — score 73/100)
- ANSYS ACP (Composite PrepPost) laminate FEA simulation
- VARI manufacturing of physical test specimens
- Physical three-point bending validation
- Test-simulation result correlation

## Tools Used
- ANSYS ACP (Composite PrepPost) — composite laminate FEA
- ANSYS Mechanical — structural validation
- CATIA V5 — concept CAD modelling and geometry
- VARI Process — physical specimen manufacture

## Key Results
| Parameter | Value |
|-----------|-------|
| Load applied | 200 N |
| Span | 200 mm |
| Max deformation (simulation) | 4.9×10⁻³ mm |
| Failure mode | Shear-dominated core |
| Final bodywork mass | 5–6 kg |
| Target mass | ≤10 kg |
| Test-simulation correlation | ✅ Confirmed |

## Methodology

### 1. Material Selection
Selected 2×2 twill woven CFRP face sheets with PVC foam 
core based on specific stiffness, manufacturability, and 
regulatory compliance criteria.

### 2. Concept Design
Three concepts evaluated using weighted decision matrix:
- Manufacturability: 25%
- Regulatory compliance: 20%
- Mass: 15%
- Flat-Top Minimal concept selected with score 73/100

### 3. ANSYS ACP Simulation
Full composite laminate model built in ANSYS ACP — 
individual ply orientations, thickness distributions, 
and failure criteria defined. Three-point bending 
simulation performed under identical boundary conditions 
to physical test.

### 4. VARI Manufacturing
Physical test specimens manufactured using Vacuum Assisted 
Resin Infusion (VARI) process — dry lay-up, vacuum bagging, 
resin infusion, and cure.

### 5. Physical Test Validation
Specimens tested under three-point bending — experimental 
results correlated with ANSYS ACP simulation confirming 
shear-dominated core failure mode and face-to-core load 
transfer behaviour.

## Results

### ANSYS ACP Simulation
![ACP Simulation](acp-simulation.png)

### Three Point Bending Results
![Three Point Bending](three-point-bending.png)

### Physical Test Specimen
![Physical Specimen](physical-specimen.png)

### Bodywork Design
![Bodywork Design](bodywork-design.png)

## Skills Demonstrated
- Composite structural analysis (ANSYS ACP)
- Physical test-simulation correlation
- VARI composite manufacturing
- Engineering design methodology
- Technical documentation and reporting

## Key Achievement
Final bodywork achieved **5–6 kg** against a structural 
target of **≤10 kg** — validated through both simulation 
and physical testing.
